#P

Gaussian input prepared by ASE

0 1
C                 1.2900000000       -3.5060000000       -0.0730000000
C                 0.0440000000       -2.8280000000       -0.1420000000
C                 0.0060000000       -1.4030000000       -0.1070000000
C                 1.2130000000       -0.6640000000       -0.0030000000
C                 2.4630000000       -1.3460000000        0.0660000000
C                 2.4990000000       -2.7650000000        0.0300000000
C                -1.2380000000       -0.7250000000       -0.1760000000
C                 1.1750000000        0.7540000000        0.0320000000
C                -0.0690000000        1.4330000000       -0.0370000000
C                -1.2760000000        0.6930000000       -0.1400000000
C                -0.1070000000        2.8570000000       -0.0010000000
C                 1.1010000000        3.5960000000        0.1030000000
C                 2.3480000000        2.9160000000        0.1710000000
C                 2.3870000000        1.4970000000        0.1360000000
C                 3.6320000000        0.8170000000        0.2050000000
C                 3.6690000000       -0.6050000000        0.1700000000
C                -1.1640000000       -3.5670000000       -0.2460000000
C                -2.4110000000       -2.8860000000       -0.3150000000
C                -2.4500000000       -1.4670000000       -0.2800000000
C                -3.6950000000       -0.7870000000       -0.3480000000
C                -3.7320000000        0.6340000000       -0.3130000000
C                -2.5260000000        1.3750000000       -0.2090000000
C                -1.3530000000        3.5350000000       -0.0700000000
C                -2.5620000000        2.7940000000       -0.1740000000
C                 3.5670000000        3.6570000000        0.2760000000
C                 4.7850000000        2.9670000000        0.3420000000
H                 5.7150000000        3.5360000000        0.4220000000
C                -1.3860000000        4.9650000000       -0.0340000000
C                 1.0570000000        5.0250000000        0.1380000000
C                -0.1820000000        5.6760000000        0.0690000000
H                -0.2120000000        6.7680000000        0.0970000000
C                -3.8190000000        3.4730000000       -0.2420000000
C                -4.9990000000        2.7240000000       -0.3440000000
H                -5.9580000000        3.2470000000       -0.3960000000
C                -4.9840000000        1.3230000000       -0.3810000000
C                -4.9080000000       -1.5370000000       -0.4520000000
C                -4.8480000000       -2.9370000000       -0.4860000000
H                -5.7780000000       -3.5070000000       -0.5650000000
C                -3.6300000000       -3.6270000000       -0.4190000000
C                -1.1210000000       -4.9960000000       -0.2810000000
C                 0.1190000000       -5.6470000000       -0.2130000000
H                 0.1490000000       -6.7390000000       -0.2400000000
C                 1.3230000000       -4.9350000000       -0.1100000000
C                 3.7560000000       -3.4440000000        0.0990000000
C                 4.9360000000       -2.6950000000        0.2010000000
H                 5.8950000000       -3.2170000000        0.2530000000
C                 4.9210000000       -1.2930000000        0.2380000000
C                 2.5960000000       -5.5880000000       -0.0390000000
C                 3.7580000000       -4.8760000000        0.0600000000
C                 6.1200000000       -0.5160000000        0.3410000000
C                 6.0840000000        0.8500000000        0.3760000000
C                 3.4920000000        5.0870000000        0.3090000000
C                 2.2940000000        5.7400000000        0.2430000000
C                -2.6590000000        5.6170000000       -0.1040000000
C                -3.8210000000        4.9050000000       -0.2030000000
C                -6.1830000000        0.5450000000       -0.4850000000
C                -6.1470000000       -0.8200000000       -0.5190000000
C                -3.5550000000       -5.0580000000       -0.4520000000
C                -2.3580000000       -5.7110000000       -0.3860000000
H                -7.0720000000       -1.3950000000       -0.5980000000
H                -7.1380000000        1.0740000000       -0.5360000000
H                -4.7820000000        5.4220000000       -0.2560000000
H                 2.2580000000        6.8320000000        0.2700000000
H                 4.4250000000        5.6500000000        0.3880000000
H                 7.0090000000        1.4250000000        0.4550000000
H                 7.0750000000       -1.0440000000        0.3930000000
H                 4.7190000000       -5.3920000000        0.1120000000
H                 2.6190000000       -6.6800000000       -0.0680000000
H                -2.3220000000       -6.8030000000       -0.4130000000
H                -4.4880000000       -5.6210000000       -0.5320000000
C                 4.8450000000        1.5660000000        0.3090000000
H                -2.6820000000        6.7090000000       -0.0760000000
O                 1.3124722337       -0.6263219015       -1.4290384411
O                -3.6544722337       -5.0956780985        0.9740384411


