%chk=C:\Users\SivaSurya\Desktop\Graphene.chk
%nprocshared=4
#p opt b3lyp/6-31g(d) geom=connectivity

Title Card Required

0 1
 C                  1.23787408   -3.46813031   -0.07681535
 C                 -0.01284908   -2.80706249   -0.14598260
 C                 -0.04214431   -1.41096313   -0.11060940
 C                  1.15736075   -0.72739415   -0.00898573
 C                  2.33033356   -1.38024750    0.05501428
 C                  2.38087776   -2.73642891    0.02219819
 C                 -1.25755109   -0.69650818   -0.17588010
 C                  1.14187476    0.78844525    0.03052675
 C                 -0.05093706    1.42356940   -0.03531589
 C                 -1.26167860    0.68367419   -0.13920235
 C                 -0.08026218    2.82335554    0.00010846
 C                  1.12286868    3.55183447    0.10315513
 C                  2.32046080    2.90787679    0.16911233
 C                  2.35030577    1.50502246    0.13364838
 C                  3.55019727    0.84949531    0.19946195
 C                  3.61816676   -0.55428936    0.16660258
 C                 -1.17144969   -3.50387351   -0.24513263
 C                 -2.40796990   -2.83889878   -0.31318437
 C                 -2.46647059   -1.42350386   -0.27930531
 C                 -3.67518537   -0.76369716   -0.34554108
 C                 -3.69725777    0.64741707   -0.30926678
 C                 -2.48735088    1.37839014   -0.20570141
 C                 -1.31505202    3.48838166   -0.06784117
 C                 -2.50193886    2.75148834   -0.16996177
 C                  3.53148260    3.63376956    0.27265688
 C                  4.70962383    2.97450521    0.33687713
 H                  5.62402906    3.52463297    0.41512903
 C                 -1.37901628    4.89454742   -0.03467230
 C                  1.08475412    5.08341532    0.14146862
 C                 -0.09462140    5.72188725    0.07663300
 H                 -0.13663125    6.79075342    0.10228867
 C                 -3.71475573    3.44239561   -0.23566445
 C                 -5.00580233    2.64962921   -0.34648139
 H                 -5.95067496    3.14901890   -0.39868694
 C                 -4.93644428    1.31022560   -0.37752732
 C                 -4.90327203   -1.48587799   -0.45014836
 C                 -4.90915722   -2.82975234   -0.48660099
 H                 -5.83296991   -3.36389815   -0.56506291
 C                 -3.59319486   -3.58182182   -0.41540791
 C                 -1.13445010   -5.03391076   -0.28358921
 C                  0.20987902   -5.75279403   -0.20947249
 H                  0.26050279   -6.82130132   -0.23460347
 C                  1.33125866   -5.01281246   -0.11172682
 C                  3.74801345   -3.44546117    0.09818648
 C                  4.88550383   -2.71812765    0.19670664
 H                  5.83268609   -3.21308577    0.24926296
 C                  4.81946615   -1.18181427    0.23326343
 C                  2.69851644   -5.71390135   -0.03551653
 C                  3.82936495   -4.98063506    0.06270602
 C                  6.00556516   -0.44161675    0.33550124
 C                  5.96654573    0.91092037    0.36899754
 C                  3.54897695    5.17686456    0.31513596
 C                  2.39287740    5.86447163    0.25321270
 C                 -2.57141928    5.52973338   -0.10047198
 C                 -3.75427590    4.79430244   -0.20224892
 C                 -6.22227417    0.49938197   -0.48847997
 C                 -6.14654833   -0.83924669   -0.51910065
 C                 -3.60035842   -4.94069001   -0.45236299
 C                 -2.28403390   -5.72123915   -0.38187648
 H                 -7.04229546   -1.41932822   -0.59680854
 H                 -7.17125381    0.99087094   -0.54116070
 H                 -4.69489022    5.30172156   -0.25397260
 H                  2.39049778    6.93408953    0.28164110
 H                  4.47922191    5.69970344    0.39373630
 H                  6.87565305    1.46977755    0.44712970
 H                  6.94649954   -0.94843286    0.38731717
 H                  4.78054083   -5.46782275    0.11574244
 H                  2.75406863   -6.78217119   -0.06028580
 H                 -2.28062869   -6.79085541   -0.41033880
 H                 -4.52866302   -5.46697055   -0.53095812
 C                  4.73917543    1.57945640    0.30160579
 H                 -2.60850829    6.59877537   -0.07446313

 1 2 1.5 6 2.0 43 1.0
 2 3 1.5 17 2.0
 3 4 1.5 7 1.5
 4 5 2.0 8 1.0
 5 6 2.0 16 1.0
 6 44 1.0
 7 10 2.0 19 1.5
 8 9 2.0 14 1.5
 9 10 1.5 11 1.5
 10 22 1.5
 11 12 1.5 23 1.5
 12 13 2.0 29 1.0
 13 14 1.5 25 1.5
 14 15 2.0
 15 16 1.5 71 1.5
 16 47 2.0
 17 18 1.5 40 1.0
 18 19 1.5 39 1.5
 19 20 2.0
 20 21 1.5 36 1.5
 21 22 1.5 35 1.5
 22 24 2.0
 23 24 1.5 28 1.5
 24 32 1.5
 25 26 2.0 52 1.0
 26 27 1.0 71 1.5
 27
 28 30 1.0 54 2.0
 29 30 2.0 53 1.0
 30 31 1.0
 31
 32 33 1.0 55 2.0
 33 34 1.0 35 2.0
 34
 35 56 1.0
 36 37 2.0 57 1.5
 37 38 1.0 39 1.0
 38
 39 58 2.0
 40 41 1.0 59 2.0
 41 42 1.0 43 2.0
 42
 43 48 1.0
 44 45 2.0 49 1.0
 45 46 1.0 47 1.0
 46
 47 50 1.5
 48 49 2.0 68 1.0
 49 67 1.0
 50 51 2.0 66 1.0
 51 65 1.0 71 1.5
 52 53 2.0 64 1.0
 53 63 1.0
 54 55 1.5 72 1.0
 55 62 1.0
 56 57 2.0 61 1.0
 57 60 1.0
 58 59 1.0 70 1.0
 59 69 1.0
 60
 61
 62
 63
 64
 65
 66
 67
 68
 69
 70
 71
 72

